LAMMPS (18 Jul 2015)
#===============Variables=============

variable 	peTot equal pe
variable 	eMol equal emol
variable 	Press equal press
variable	zFactor equal "press*vol*0.0101325/(1.3806488*temp*v_Nmolec)"
variable	uDep equal "(pe-emol)*4184/(8.3144*temp*v_Nmolec)"
variable	L equal "(v_Nmolec*v_MW/(v_rho*0.60221413))^(1/3)"

#=============Matrim_equil=============

clear
units		real
boundary	p p p
atom_style	full
package		gpu 1

#=============FORCE FIELD=============

pair_style	table/gpu linear 2481
#kspace_style	ewald 1.0e-4
pair_modify	mix arithmetic
#special_bonds	amber
#pair_modify	shift yes

bond_style	harmonic
angle_style	harmonic
dihedral_style	opls
#improper_style	cvff

#dataorrestart
read_data	DataFiles/0.70800/0.70800.data
  orthogonal box = (0 0 0) to (34.2526 34.2526 34.2526)
  reading atoms ...
  1200 atoms
  scanning bonds ...
  scanning angles ...
  scanning dihedrals ...
  reading bonds ...
  1050 bonds
  reading angles ...
  1350 angles
  reading dihedrals ...
  750 dihedrals
#read_data	isopentane.data

#=============PairParameters=============

pair_coeff	1 1 potential.table >C<>C<
pair_coeff	1 2 potential.table >C<-CH2-
pair_coeff	2 2 potential.table -CH2--CH2-

pair_coeff	1 3 potential.table >C<-CH3a
pair_coeff	2 3 potential.table -CH2--CH3a
pair_coeff	3 3 potential.table -CH3a-CH3a

pair_coeff	1 4 potential.table >C<-CH3c
pair_coeff	2 4 potential.table -CH2--CH3c
pair_coeff	3 4 potential.table -CH3a-CH3c
pair_coeff	4 4 potential.table -CH3c-CH3c

#pair_write 	2 2 2781 r 0.2 14.1 table.txt CH2CH2
#pair_write 	1 1 2781 r 0.2 14.1 table.txt CHCH
#pair_write 	1 2 2781 r 0.2 14.1 table.txt CHCH2

variable	realEps equal 32/503.2195612716
variable	realEps0 equal 54.6/503.2195612716
variable	realEpsij equal (32*54.6)^(1/2)/503.2195612716
variable	sigij equal (3.98+3.98)/2
variable	Aij equal (1+0.0+0.0+0.0*0.0)^(1/2)-1

#pair_coeff	* 3 0 0 0 0

neighbor	2.0 bin
neigh_modify	every 1 delay 4 check yes page 100000000 one 100000
velocity	all create $T 4928459 rot yes dist gaussian
velocity	all create 660 4928459 rot yes dist gaussian
#change_box	all x final 0.0 $L y final 0.0 $L z final 0.0 $L
thermo_style	custom step elapsed time cpuremain temp press pe ke etotal evdwl emol ecoul vol density
thermo		1000
minimize	1.0e-2 1.0e-1 100 1000
  0 neighbor list requests
  update every 1 steps, delay 0 steps, check yes
Step Elapsed Time CPULeft Temp Press PotEng KinEng TotEng E_vdwl E_mol E_coul Volume Density
0        0            0            0          660 4.6856525e+10 6.0013291e+09    2358.8342 6.0013315e+09 6.001329e+09    140.27462            0    40186.625    0.7079969
Loop time of 0.089314 on 1 procs (1 MPI x 1 OpenMP) for 100 steps with 1200 atoms

Minimization stats:
  Stopping criterion = max iterations
  Energy initial, next-to-last, final =
  Force two-norm initial, final = 1.66085e+11 96.4547
  Force max component initial, final = 9.24179e+10 22.6298
  Final line search alpha, max atom move = 0.00538025 0.121754
  Iterations, force evaluations = 100 132

Pair  time (%) = 0.0153155 (17.148)
Bond  time (%) = 0.0621634 (69.6009)
Neigh time (%) = 0.00171971 (1.92547)
Comm  time (%) = 0.0049932 (5.59061)
Outpt time (%) = 2.71797e-05 (0.0304316)
Other time (%) = 0.00509501 (5.7046)

reset_timestep	0
fix		1 all nvt temp $T $T 200
fix		1 all nvt temp 660 $T 200
fix		1 all nvt temp 660 660 200
timestep	0.25
run		5000
  0 neighbor list requests
  update every 1 steps, delay 4 steps, check yes
Step Elapsed Time CPULeft Temp Press PotEng KinEng TotEng E_vdwl E_mol E_coul Volume Density
0        0            0            0          660    6652.2556    -1077.558    2358.8342    1281.2762   -1211.8922    134.33422            0    40186.625    0.7079969
Loop time of 2.90367 on 1 procs (1 MPI x 1 OpenMP) for 5000 steps with 1200 atoms

Pair  time (%) = 0.271244 (9.34141)
Bond  time (%) = 2.28693 (78.7598)
Neigh time (%) = 0.00630474 (0.21713)
Comm  time (%) = 0.15864 (5.46344)
Outpt time (%) = 0.000134706 (0.00463918)
Other time (%) = 0.180422 (6.21357)

timestep	4
run_style	respa 3 2 2 bond 1 dihedral 2 pair 3
Respa levels:
  1 = bond angle
  2 = dihedral improper
  3 = pair kspace
write_restart	conf.bin.1
reset_timestep	0

fix		resZ all ave/time 250 125 125000 v_zFactor file zFactor.txt
fix		resP all ave/time 250 125 125000 v_Press file press.txt
fix 		resPe all ave/time 250 125 125000 v_peTot file pe.txt
fix 		resEmol all ave/time 250 125 125000 v_eMol file eMol.txt
fix		resUdep all ave/time 250 125 125000 v_uDep file uDep.txt

dump		1a all custom 1000000 dump.txt id mol type x y z
dump_modify	1a sort id

run		3000000
Step Elapsed Time CPULeft Temp Press PotEng KinEng TotEng E_vdwl E_mol E_coul Volume Density
0        0         1250            0    713.20484    5890.0142    667.63453    2548.9879    3216.6224   -1051.7269    1719.3614            0    40186.625    0.7079969
Averages over the last 1501 of 3001 rows, steps 1500000 to 3000000:
Temp Press PotEng KinEng TotEng E_vdwl E_mol E_coul Volume Density
660.368 3688.18 771.104 2360.15 3131.25 -1125.65 1896.76 0 40186.6 0.707997
Loop time of 6143.68 on 1 procs (1 MPI x 1 OpenMP) for 3000000 steps with 1200 atoms

Pair  time (%) = 1296.12 (21.0968)
Bond  time (%) = 3655.94 (59.5072)
Neigh time (%) = 63.5062 (1.03368)
Comm  time (%) = 523.981 (8.52877)
Outpt time (%) = 0.101449 (0.00165127)
Other time (%) = 604.04 (9.83188)

write_restart	conf.bin.2

Please see the log.cite file for references relevant to this simulation
